<?xml version="1.0" encoding="UTF-8"?>

<!-- generated on Fri Jun  7 11:18:36 2019 by Eclipse SUMO duarouter Version 1.2.0
<configuration xmlns:xsi="http://www.w3.org/2001/XMLSchema-instance" xsi:noNamespaceSchemaLocation="http://sumo.dlr.de/xsd/duarouterConfiguration.xsd">

    <input>
        <net-file value="hochschule_muenchen.net.xml"/>
        <route-files value="trips.trips.xml"/>
    </input>

    <output>
        <output-file value="hochschule_muenchen.pedestrians.rou.xml"/>
        <alternatives-output value="hochschule_muenchen.pedestrians.rou.alt.xml"/>
    </output>

    <time>
        <begin value="0.0"/>
        <end value="50.0"/>
    </time>

    <report>
        <no-warnings value="true"/>
        <ignore-errors value="true"/>
        <no-step-log value="true"/>
    </report>

</configuration>
-->

<routes xmlns:xsi="http://www.w3.org/2001/XMLSchema-instance" xsi:noNamespaceSchemaLocation="http://sumo.dlr.de/xsd/routes_file.xsd">
   <vType id="vtype" accel="2.6" decel="4.5" sigma="0.5" length="2.5" minGap="2.5" maxSpeed="14" color="1,1,0"/>
   <route id="route0" edges="-gneE25 -gneE22 -gneE22.26 -gneE22.65 gneE32 gneE33 -gneE146 -gneE99.58 292630184#1 292630184#2"/>
   <route id="route1" edges="gneE132.183 -gneE33 -gneE32 gneE22 gneE22.53 gneE22.91"/>
   <route id="route2" edges="gneE160 gneE175 gneE175.63"/>
   <flow id="flow0" type="vtype" route="route0" begin="0" period="5" number="3" arrivalPos="0" />


    <vType id="pedestrian" vClass="pedestrian"/>
    <person id="0" type="pedestrian" depart="0.00">
        <walk edges="gneE155 gneE3 gneE4 gneE11 gneE12 -gneE102 gneE102 -gneE104 -292630184#1 -292630184#2 292630184#2 gneE175.63 gneE175 gneE160 -4520029#5 -4520029#6 4520029#6 4520029#5 423191019#0"/>
    </person>
    <person id="1" type="pedestrian" depart="0.25">
        <walk edges="gneE155 gneE7.32 gneE7 38759699#0 gneE132.183 gneE132.166 gneE132 gneE55.82 gneE55.22 gneE55"/>
    </person>
    <person id="2" type="pedestrian" depart="0.50">
        <walk edges="-gneE102 gneE12 gneE154 gneE7 38759699#0 gneE132.183 gneE140 gneE134 gneE97 161652311#5 gneE87 gneE88 346311427#0 346311427#0.6 346311427#1 346311427#2 346311427#3 gneE122"/>
    </person>
    <person id="3" type="pedestrian" depart="0.75">
        <walk edges="4520029#6 -4520029#6 -4520029#5 gneE160 gneE175 gneE175.63 292630184#2 -292630184#2 -292630184#1 -gneE104 gneE102 -gneE102 gneE12 gneE154 gneE7 gneE34 313576542#2 -gneE32 gneE22 gneE157 423205019"/>
    </person>
    <person id="4" type="pedestrian" depart="1.00">
        <walk edges="-450396602#2 346311427#3 346311427#2 346311427#1 346311427#0.6 346311427#0 gneE88 gneE87 161652311#5 gneE97 gneE134 gneE140 gneE132.183 38759699#0 gneE34 gneE142.111 gneE142.97 gneE142.72 gneE149"/>
    </person>
    <person id="5" type="pedestrian" depart="1.25">
        <walk edges="-gneE25 -gneE30 gneE163 gneE141 gneE140 gneE134 gneE97 161652311#5 gneE87 gneE88 346311427#0 346311427#0.6 346311427#1 346311427#2 -gneE121"/>
    </person>
    <person id="6" type="pedestrian" depart="1.50">
        <walk edges="gneE167 gneE55.22 gneE55.82 gneE132 gneE132.166 gneE132.183 38759699#0 gneE7 gneE154 gneE12 -gneE102 gneE102 -gneE104 -292630184#1 -292630184#2 292630184#2 gneE175.63 gneE176.9"/>
    </person>
    <person id="7" type="pedestrian" depart="1.75">
        <walk edges="313576542#2 gneE37 gneE141 gneE140 gneE134 gneE97 161652311#5 gneE87 gneE88 346311427#0 346311427#0.6 346311427#1 346311427#2 346311427#3 -gneE122"/>
    </person>
    <person id="8" type="pedestrian" depart="2.00">
        <walk edges="-4520029#5 gneE160 gneE175 gneE175.63 292630184#2 -292630184#2 -292630184#1 -gneE104 gneE102 -gneE102 gneE12 gneE154 gneE7 38759699#0"/>
    </person>
    <person id="9" type="pedestrian" depart="2.25">
        <walk edges="4520029#6 -4520029#6 -4520029#5 gneE160 gneE175 gneE175.63 292630184#2 -292630184#2 -292630184#1 -gneE104 gneE102 -gneE102 gneE12 gneE154 gneE7 gneE34 gneE142.111 gneE142.97 gneE142.72 gneE142"/>
    </person>
    <person id="10" type="pedestrian" depart="2.50">
        <walk edges="423205028#0 gneE157 gneE22 -gneE32 313576542#2 gneE34 gneE7 gneE154 gneE12 -gneE102 gneE102 -gneE104 -292630184#1 -292630184#2 292630184#2 gneE175.63 gneE176"/>
    </person>
</routes>
