<?xml version="1.0" encoding="UTF-8"?>

<!-- generated on Mo 27 Mai 2019 16:31:53 CEST by Eclipse SUMO netedit Version 1.1.0
<configuration xmlns:xsi="http://www.w3.org/2001/XMLSchema-instance" xsi:noNamespaceSchemaLocation="http://sumo.dlr.de/xsd/netconvertConfiguration.xsd">

    <input>
        <sumo-net-file value="hochschule_muenchen.modified.net.xml"/>
    </input>

    <output>
        <output-file value="hochschule_muenchen.modified.net.xml"/>
    </output>

    <processing>
        <geometry.max-grade.fix value="false"/>
        <offset.disable-normalization value="true"/>
        <lefthand value="false"/>
    </processing>

    <junctions>
        <no-internal-links value="false"/>
        <no-turnarounds value="true"/>
        <junctions.corner-detail value="5"/>
        <junctions.limit-turn-speed value="5.5"/>
        <rectangular-lane-cut value="false"/>
    </junctions>

    <pedestrian>
        <walkingareas value="true"/>
    </pedestrian>

</configuration>
-->

<net version="1.1" junctionCornerDetail="5" walkingareas="true" limitTurnSpeed="5.50" xmlns:xsi="http://www.w3.org/2001/XMLSchema-instance" xsi:noNamespaceSchemaLocation="http://sumo.dlr.de/xsd/net_file.xsd">

    <location netOffset="-689432.88,-5336004.59" convBoundary="365.35,349.39,919.19,887.42" origBoundary="11.547408,48.148799,11.559554,48.159432" projParameter="+proj=utm +zone=32 +ellps=WGS84 +datum=WGS84 +units=m +no_defs"/>

    <type id="highway.bridleway" priority="1" numLanes="1" speed="2.78" allow="pedestrian" oneway="1" width="2.00"/>
    <type id="highway.bus_guideway" priority="1" numLanes="1" speed="27.78" allow="bus" oneway="1"/>
    <type id="highway.cycleway" priority="1" numLanes="1" speed="8.33" allow="bicycle" oneway="0" width="1.00"/>
    <type id="highway.footway" priority="1" numLanes="1" speed="2.78" allow="pedestrian" oneway="1" width="2.00"/>
    <type id="highway.ford" priority="1" numLanes="1" speed="2.78" allow="army" oneway="0"/>
    <type id="highway.living_street" priority="3" numLanes="1" speed="2.78" disallow="tram rail_urban rail rail_electric ship" oneway="0"/>
    <type id="highway.motorway" priority="13" numLanes="2" speed="44.44" allow="private emergency authority army vip passenger hov taxi bus coach delivery truck trailer motorcycle evehicle custom1 custom2" oneway="1"/>
    <type id="highway.motorway_link" priority="12" numLanes="1" speed="22.22" allow="private emergency authority army vip passenger hov taxi bus coach delivery truck trailer motorcycle evehicle custom1 custom2" oneway="1"/>
    <type id="highway.path" priority="1" numLanes="1" speed="2.78" allow="bicycle pedestrian" oneway="1" width="2.00"/>
    <type id="highway.pedestrian" priority="1" numLanes="1" speed="2.78" allow="pedestrian" oneway="1" width="2.00"/>
    <type id="highway.primary" priority="9" numLanes="2" speed="27.78" disallow="tram rail_urban rail rail_electric pedestrian ship" oneway="0" sidewalkWidth="3.00"/>
    <type id="highway.primary_link" priority="8" numLanes="1" speed="22.22" disallow="tram rail_urban rail rail_electric pedestrian ship" oneway="0" sidewalkWidth="3.00"/>
    <type id="highway.raceway" priority="14" numLanes="2" speed="83.33" allow="vip" oneway="0"/>
    <type id="highway.residential" priority="4" numLanes="1" speed="13.89" disallow="tram rail_urban rail rail_electric pedestrian ship" oneway="0" sidewalkWidth="2.00"/>
    <type id="highway.secondary" priority="7" numLanes="2" speed="27.78" disallow="tram rail_urban rail rail_electric pedestrian ship" oneway="0" sidewalkWidth="3.00"/>
    <type id="highway.secondary_link" priority="6" numLanes="1" speed="22.22" disallow="tram rail_urban rail rail_electric pedestrian ship" oneway="0" sidewalkWidth="3.00"/>
    <type id="highway.service" priority="2" numLanes="1" speed="5.56" allow="delivery bicycle pedestrian" oneway="0"/>
    <type id="highway.stairs" priority="1" numLanes="1" speed="1.39" allow="pedestrian" oneway="1" width="2.00"/>
    <type id="highway.step" priority="1" numLanes="1" speed="1.39" allow="pedestrian" oneway="1" width="2.00"/>
    <type id="highway.steps" priority="1" numLanes="1" speed="1.39" allow="pedestrian" oneway="1" width="2.00"/>
    <type id="highway.tertiary" priority="6" numLanes="1" speed="22.22" disallow="tram rail_urban rail rail_electric pedestrian ship" oneway="0" sidewalkWidth="3.00"/>
    <type id="highway.tertiary_link" priority="5" numLanes="1" speed="22.22" disallow="tram rail_urban rail rail_electric pedestrian ship" oneway="0" sidewalkWidth="2.00"/>
    <type id="highway.track" priority="1" numLanes="1" speed="5.56" disallow="tram rail_urban rail rail_electric ship" oneway="0"/>
    <type id="highway.trunk" priority="11" numLanes="2" speed="27.78" disallow="tram rail_urban rail rail_electric bicycle pedestrian ship" oneway="0"/>
    <type id="highway.trunk_link" priority="10" numLanes="1" speed="22.22" disallow="tram rail_urban rail rail_electric bicycle pedestrian ship" oneway="0"/>
    <type id="highway.unclassified" priority="5" numLanes="1" speed="13.89" disallow="tram rail_urban rail rail_electric pedestrian ship" oneway="0" sidewalkWidth="2.00"/>
    <type id="highway.unsurfaced" priority="1" numLanes="1" speed="8.33" disallow="tram rail_urban rail rail_electric ship" oneway="0"/>
    <type id="railway.light_rail" priority="15" numLanes="1" speed="27.78" allow="rail_urban" oneway="1"/>
    <type id="railway.preserved" priority="15" numLanes="1" speed="27.78" allow="rail" oneway="1"/>
    <type id="railway.rail" priority="15" numLanes="1" speed="83.33" allow="rail rail_electric" oneway="1"/>
    <type id="railway.subway" priority="15" numLanes="1" speed="27.78" allow="rail_urban" oneway="1"/>
    <type id="railway.tram" priority="15" numLanes="1" speed="13.89" allow="tram" oneway="1"/>

    <edge id=":1129822994_0" function="internal">
        <lane id=":1129822994_0_0" index="0" allow="delivery bicycle pedestrian" speed="5.56" length="6.10" shape="795.14,598.31 794.49,596.64 793.87,595.56 793.03,594.63 791.69,593.42"/>
    </edge>
    <edge id=":1129822994_1" function="internal">
        <lane id=":1129822994_1_0" index="0" allow="delivery bicycle pedestrian" speed="5.56" length="7.71" shape="793.82,591.03 795.51,592.56 796.57,593.74 797.34,595.12 798.15,597.24"/>
    </edge>
    <edge id=":1129822994_w0" function="walkingarea">
        <lane id=":1129822994_w0_0" index="0" allow="pedestrian" speed="1.00" length="6.29" width="3.20" shape="793.63,598.85 796.64,597.77 796.64,597.77 799.66,596.70 800.64,595.10 800.40,593.12 794.89,589.84 792.76,592.23 792.76,592.23 790.62,594.61 790.42,596.31 791.35,598.08 793.39,598.36 793.10,598.02 792.74,597.83 792.32,597.78 791.86,597.86"/>
    </edge>
    <edge id=":1282722729_0" function="internal">
        <lane id=":1282722729_0_0" index="0" disallow="tram rail_urban rail rail_electric pedestrian ship" speed="8.33" length="14.56" shape="469.39,576.45 458.39,566.90"/>
    </edge>
    <edge id=":1282722729_1" function="internal">
        <lane id=":1282722729_1_0" index="0" disallow="tram rail_urban rail rail_electric pedestrian ship" speed="8.09" length="5.96" shape="469.39,576.45 466.85,573.56 466.19,571.55"/>
    </edge>
    <edge id=":1282722729_6" function="internal">
        <lane id=":1282722729_6_0" index="0" disallow="tram rail_urban rail rail_electric pedestrian ship" speed="8.09" length="8.36" shape="466.19,571.55 465.84,570.50 466.38,567.27 468.46,563.88"/>
    </edge>
    <edge id=":1282722729_2" function="internal">
        <lane id=":1282722729_2_0" index="0" disallow="tram rail_urban rail rail_electric pedestrian ship" speed="6.61" length="9.22" shape="470.93,565.90 469.58,568.10 469.21,570.19 469.84,572.16 471.46,574.01"/>
    </edge>
    <edge id=":1282722729_3" function="internal">
        <lane id=":1282722729_3_0" index="0" disallow="tram rail_urban rail rail_electric pedestrian ship" speed="7.96" length="14.48" shape="470.93,565.90 467.99,568.60 464.92,569.67 461.72,569.10 458.39,566.90"/>
    </edge>
    <edge id=":1282722729_4" function="internal">
        <lane id=":1282722729_4_0" index="0" disallow="tram rail_urban rail rail_electric pedestrian ship" speed="6.46" length="4.88" shape="460.52,564.51 462.62,565.90 464.65,566.26 464.93,566.16"/>
    </edge>
    <edge id=":1282722729_5" function="internal">
        <lane id=":1282722729_5_0" index="0" disallow="tram rail_urban rail rail_electric pedestrian ship" speed="8.33" length="14.49" shape="460.52,564.51 471.46,574.01"/>
    </edge>
    <edge id=":1282722729_7" function="internal">
        <lane id=":1282722729_7_0" index="0" disallow="tram rail_urban rail rail_electric pedestrian ship" speed="6.46" length="4.29" shape="464.93,566.16 466.59,565.58 468.46,563.88"/>
    </edge>
    <edge id=":1282722729_c0" function="crossing" crossingEdges="gneE32 -gneE32">
        <lane id=":1282722729_c0_0" index="0" allow="pedestrian" speed="1.00" length="6.40" width="4.00" shape="470.97,571.49 466.83,576.37"/>
    </edge>
    <edge id=":1282722729_c1" function="crossing" crossingEdges="gneE22 -gneE22.65">
        <lane id=":1282722729_c1_0" index="0" allow="pedestrian" speed="1.00" length="6.40" width="4.00" shape="465.95,564.41 470.91,568.46"/>
    </edge>
    <edge id=":1282722729_c2" function="crossing" crossingEdges="gneE19 -gneE19">
        <lane id=":1282722729_c2_0" index="0" allow="pedestrian" speed="1.00" length="6.40" width="4.00" shape="458.83,569.43 463.07,564.64"/>
    </edge>
    <edge id=":1282722729_w0" function="walkingarea">
        <lane id=":1282722729_w0_0" index="0" allow="pedestrian" speed="1.00" length="9.16" width="4.00" shape="460.32,570.75 457.33,568.10 456.00,569.59 467.06,579.19 468.35,577.67 465.30,575.08"/>
    </edge>
    <edge id=":1282722729_w1" function="walkingarea">
        <lane id=":1282722729_w1_0" index="0" allow="pedestrian" speed="1.00" length="3.43" width="4.00" shape="472.49,572.79 473.78,571.26 473.72,568.18 472.17,566.91 471.43,568.00 471.00,569.04 470.90,570.04 471.11,570.99 471.64,571.91"/>
    </edge>
    <edge id=":1282722729_w2" function="walkingarea">
        <lane id=":1282722729_w2_0" index="0" allow="pedestrian" speed="1.00" length="3.31" width="4.00" shape="467.22,562.86 465.67,561.60 462.91,561.82 461.58,563.31 462.58,564.05 463.56,564.47 464.51,564.56 465.44,564.32 466.34,563.75"/>
    </edge>
    <edge id=":1659064515_0" function="internal">
        <lane id=":1659064515_0_0" index="0" disallow="tram rail_urban rail rail_electric pedestrian ship" speed="6.07" length="7.65" shape="636.10,459.03 633.92,457.41 632.07,456.58 630.56,456.54 629.38,457.29"/>
    </edge>
    <edge id=":1659064515_1" function="internal">
        <lane id=":1659064515_1_0" index="0" allow="delivery bicycle pedestrian" speed="5.99" length="7.65" shape="635.67,450.22 635.02,451.51 635.22,453.01 636.28,454.70 638.18,456.60"/>
    </edge>
    <edge id=":1659064515_2" function="internal">
        <lane id=":1659064515_2_0" index="0" disallow="tram rail_urban rail rail_electric pedestrian ship" speed="13.89" length="9.49" shape="635.67,450.22 629.38,457.29"/>
        <lane id=":1659064515_2_1" index="1" disallow="tram rail_urban rail rail_electric pedestrian ship" speed="13.89" length="9.49" shape="633.30,448.07 626.98,455.19"/>
    </edge>
    <edge id=":1659064515_w0" function="walkingarea">
        <lane id=":1659064515_w0_0" index="0" allow="pedestrian" speed="1.00" length="5.89" width="3.20" shape="630.59,458.35 632.84,460.32 635.06,460.25 637.14,457.82 637.14,457.82 639.22,455.39 639.09,453.30 636.86,451.29"/>
    </edge>
    <edge id=":1659064519_0" function="internal">
        <lane id=":1659064519_0_0" index="0" allow="delivery bicycle pedestrian" speed="5.56" length="6.67" shape="683.94,508.98 682.07,508.45 680.70,508.33 679.34,508.58 677.47,509.18"/>
    </edge>
    <edge id=":1659064519_1" function="internal">
        <lane id=":1659064519_1_0" index="0" allow="delivery bicycle pedestrian" speed="5.56" length="4.15" shape="683.94,508.98 681.98,508.04 680.53,506.70"/>
    </edge>
    <edge id=":1659064519_8" function="internal">
        <lane id=":1659064519_8_0" index="0" allow="delivery bicycle pedestrian" speed="5.56" length="4.70" shape="680.53,506.70 680.45,506.63 679.37,504.76 678.73,502.42"/>
    </edge>
    <edge id=":1659064519_2" function="internal">
        <lane id=":1659064519_2_0" index="0" allow="delivery bicycle pedestrian" speed="5.56" length="5.28" shape="681.89,501.90 682.27,503.35 682.91,504.50 683.79,505.35 684.91,505.89"/>
    </edge>
    <edge id=":1659064519_3" function="internal">
        <lane id=":1659064519_3_0" index="0" allow="delivery bicycle pedestrian" speed="5.56" length="9.41" shape="681.89,501.90 681.95,504.43 681.23,506.49 679.74,508.07 677.47,509.18"/>
    </edge>
    <edge id=":1659064519_4" function="internal">
        <lane id=":1659064519_4_0" index="0" allow="delivery bicycle pedestrian" speed="3.65" length="4.67" shape="681.89,501.90 681.29,503.22 680.57,503.74 679.71,503.47 678.73,502.42"/>
    </edge>
    <edge id=":1659064519_5" function="internal">
        <lane id=":1659064519_5_0" index="0" allow="delivery bicycle pedestrian" speed="5.23" length="4.82" shape="676.47,506.14 677.63,505.57 678.40,504.76 678.76,503.71 678.73,502.42"/>
    </edge>
    <edge id=":1659064519_6" function="internal">
        <lane id=":1659064519_6_0" index="0" allow="delivery bicycle pedestrian" speed="5.56" length="8.69" shape="676.47,506.14 678.91,505.37 680.68,505.05 682.46,505.21 684.91,505.89"/>
    </edge>
    <edge id=":1659064519_7" function="internal">
        <lane id=":1659064519_7_0" index="0" allow="delivery bicycle pedestrian" speed="3.65" length="2.34" shape="676.47,506.14 677.86,506.53 678.49,507.16"/>
    </edge>
    <edge id=":1659064519_9" function="internal">
        <lane id=":1659064519_9_0" index="0" allow="delivery bicycle pedestrian" speed="3.65" length="2.34" shape="678.49,507.16 678.36,508.05 677.47,509.18"/>
    </edge>
    <edge id=":1659064519_w0" function="walkingarea">
        <lane id=":1659064519_w0_0" index="0" allow="pedestrian" speed="1.00" length="6.50" width="3.20" shape="680.06,511.57 682.06,511.55 683.45,510.50 684.44,507.46 684.43,507.42 685.39,504.37 683.47,501.65 680.31,502.16 680.31,502.16 677.15,502.67 675.97,504.62 676.97,507.66 676.97,507.66 677.97,510.70 679.97,511.09 679.75,510.76 679.41,510.58 678.98,510.52 678.49,510.57"/>
    </edge>
    <edge id=":1659064522_0" function="internal">
        <lane id=":1659064522_0_0" index="0" allow="delivery bicycle pedestrian" speed="5.56" length="5.72" shape="723.51,532.13 719.28,528.27"/>
    </edge>
    <edge id=":1659064522_1" function="internal">
        <lane id=":1659064522_1_0" index="0" allow="delivery bicycle pedestrian" speed="3.65" length="2.34" shape="723.51,532.13 723.16,530.73 723.40,529.87"/>
    </edge>
    <edge id=":1659064522_3" function="internal">
        <lane id=":1659064522_3_0" index="0" allow="delivery bicycle pedestrian" speed="3.65" length="2.34" shape="723.40,529.87 724.23,529.54 725.66,529.75"/>
    </edge>
    <edge id=":1659064522_2" function="internal">
        <lane id=":1659064522_2_0" index="0" allow="delivery bicycle pedestrian" speed="5.56" length="5.71" shape="721.54,525.80 725.66,529.75"/>
    </edge>
    <edge id=":1659064522_w0" function="walkingarea">
        <lane id=":1659064522_w0_0" index="0" allow="pedestrian" speed="1.00" length="5.48" width="3.20" shape="722.44,533.31 724.58,530.94 724.58,530.94 726.73,528.57 722.66,524.66 720.42,526.94 720.36,527.09 718.20,529.45 717.91,531.02 718.66,532.88 721.79,532.79 721.22,532.48 720.68,532.35 720.11,532.39 719.45,532.57"/>
    </edge>
    <edge id=":1659064524_w0" function="walkingarea">
        <lane id=":1659064524_w0_0" index="0" allow="pedestrian" speed="1.00" length="4.56" width="2.00" shape="689.61,545.53 691.45,544.73 692.42,541.86 691.36,540.17 689.77,539.50 687.81,539.93 686.60,543.50 687.83,545.07 689.41,545.16 689.15,544.91 688.86,544.77 688.54,544.75 688.19,544.85"/>
    </edge>
    <edge id=":1659064528_w0" function="walkingarea">
        <lane id=":1659064528_w0_0" index="0" allow="pedestrian" speed="1.00" length="3.53" width="2.00" shape="698.72,563.60 700.02,562.08 697.87,559.43 696.04,560.23 695.17,561.90 696.35,563.52 698.30,563.28 697.92,563.09 697.56,563.01 697.19,563.06 696.79,563.23"/>
    </edge>
    <edge id=":1659064531_w0" function="walkingarea">
        <lane id=":1659064531_w0_0" index="0" allow="pedestrian" speed="1.00" length="4.19" width="2.00" shape="676.90,569.96 676.73,567.97 675.52,566.63 673.56,566.25 672.42,571.02 674.34,571.59 676.22,570.03 675.66,570.12 675.22,570.28 674.86,570.55 674.58,570.97"/>
    </edge>
    <edge id=":1659064536_w0" function="walkingarea">
        <lane id=":1659064536_w0_0" index="0" allow="pedestrian" speed="1.00" length="3.97" width="2.00" shape="645.83,609.59 644.43,608.16 642.22,608.23 640.91,609.75 641.38,612.09 643.12,613.08 645.16,610.25 644.67,610.75 644.29,611.19 643.96,611.67 643.59,612.26"/>
    </edge>
    <edge id=":1813181973_w0" function="walkingarea">
        <lane id=":1813181973_w0_0" index="0" allow="pedestrian" speed="1.00" length="4.03" width="2.00" shape="613.95,685.00 615.24,683.47 615.06,681.33 613.52,680.05 611.43,680.23 610.13,681.76"/>
    </edge>
    <edge id=":1813181976_0" function="internal">
        <lane id=":1813181976_0_0" index="0" allow="delivery bicycle pedestrian" speed="5.56" length="4.96" shape="622.23,569.97 618.93,573.67"/>
    </edge>
    <edge id=":1813181976_1" function="internal">
        <lane id=":1813181976_1_0" index="0" allow="delivery bicycle pedestrian" speed="3.65" length="2.34" shape="622.23,569.97 620.84,570.35 619.97,570.13"/>
    </edge>
    <edge id=":1813181976_4" function="internal">
        <lane id=":1813181976_4_0" index="0" allow="delivery bicycle pedestrian" speed="3.65" length="2.34" shape="619.97,570.13 619.63,569.31 619.81,567.87"/>
    </edge>
    <edge id=":1813181976_2" function="internal">
        <lane id=":1813181976_2_0" index="0" allow="delivery bicycle pedestrian" speed="5.56" length="4.87" shape="616.57,571.51 619.81,567.87"/>
    </edge>
    <edge id=":1813181976_3" function="internal">
        <lane id=":1813181976_3_0" index="0" allow="delivery bicycle pedestrian" speed="3.66" length="2.34" shape="616.57,571.51 617.97,571.16 618.83,571.41"/>
    </edge>
    <edge id=":1813181976_5" function="internal">
        <lane id=":1813181976_5_0" index="0" allow="delivery bicycle pedestrian" speed="3.66" length="2.34" shape="618.83,571.41 619.15,572.24 618.93,573.67"/>
    </edge>
    <edge id=":1813181976_w0" function="walkingarea">
        <lane id=":1813181976_w0_0" index="0" allow="pedestrian" speed="1.00" length="4.96" width="3.20" shape="622.34,574.65 623.61,573.10 623.44,571.02 621.02,568.92 621.02,568.92 618.60,566.83 615.39,570.42 617.74,572.59 617.75,572.59 620.11,574.75 621.93,574.35 621.55,574.18 621.19,574.13 620.83,574.20 620.48,574.41"/>
    </edge>
    <edge id=":1813181977_0" function="internal">
        <lane id=":1813181977_0_0" index="0" allow="delivery bicycle pedestrian" speed="5.56" length="5.50" shape="561.96,635.95 558.13,639.89"/>
    </edge>
    <edge id=":1813181977_1" function="internal">
        <lane id=":1813181977_1_0" index="0" allow="delivery bicycle pedestrian" speed="5.56" length="5.28" shape="555.90,637.60 559.55,633.79"/>
    </edge>
    <edge id=":1813181977_w0" function="walkingarea">
        <lane id=":1813181977_w0_0" index="0" allow="pedestrian" speed="1.00" length="5.57" width="3.20" shape="561.98,640.62 563.28,639.10 563.14,637.03 560.78,634.87 560.75,634.86 558.36,632.73 556.00,632.91 554.71,634.43 554.78,636.45 557.01,638.74 557.01,638.74 559.24,641.04 561.48,640.27 561.02,640.11 560.59,640.13 560.16,640.30 559.72,640.61"/>
    </edge>
    <edge id=":1955536_w0" function="walkingarea">
        <lane id=":1955536_w0_0" index="0" allow="pedestrian" speed="1.00" length="8.40" width="2.00" shape="830.33,889.83 829.01,891.33 835.87,883.51 834.55,885.01"/>
    </edge>
    <edge id=":20980542_0" function="internal">
        <lane id=":20980542_0_0" index="0" disallow="tram rail_urban rail rail_electric pedestrian ship" speed="6.54" length="8.91" shape="507.45,607.87 505.25,606.40 503.20,605.87 501.31,606.28 499.56,607.64"/>
    </edge>
    <edge id=":20980542_1" function="internal">
        <lane id=":20980542_1_0" index="0" disallow="tram rail_urban rail rail_electric pedestrian ship" speed="8.33" length="13.47" shape="507.45,607.87 497.03,599.33"/>
    </edge>
    <edge id=":20980542_2" function="internal">
        <lane id=":20980542_2_0" index="0" disallow="tram rail_urban rail rail_electric pedestrian ship" speed="7.11" length="6.99" shape="508.11,595.81 506.62,598.21 506.35,600.62 507.00,602.23"/>
    </edge>
    <edge id=":20980542_3" function="internal">
        <lane id=":20980542_3_0" index="0" disallow="tram rail_urban rail rail_electric pedestrian ship" speed="13.89" length="14.59" shape="508.11,595.81 505.44,599.21 503.88,601.76 502.30,604.29 499.56,607.64"/>
        <lane id=":20980542_3_1" index="1" disallow="tram rail_urban rail rail_electric pedestrian ship" speed="13.89" length="14.59" shape="505.70,593.70 503.04,597.09 501.49,599.63 499.92,602.14 497.20,605.48"/>
    </edge>
    <edge id=":20980542_5" function="internal">
        <lane id=":20980542_5_0" index="0" disallow="tram rail_urban rail rail_electric pedestrian ship" speed="7.24" length="10.92" shape="505.70,593.70 502.74,596.81 500.31,598.79 498.40,599.63 497.03,599.33"/>
    </edge>
    <edge id=":20980542_8" function="internal">
        <lane id=":20980542_8_0" index="0" disallow="tram rail_urban rail rail_electric pedestrian ship" speed="7.11" length="4.12" shape="507.00,602.23 507.33,603.03 509.53,605.43"/>
    </edge>
    <edge id=":20980542_6" function="internal">
        <lane id=":20980542_6_0" index="0" disallow="tram rail_urban rail rail_electric pedestrian ship" speed="8.33" length="13.62" shape="498.99,596.80 509.53,605.43"/>
    </edge>
    <edge id=":20980542_7" function="internal">
        <lane id=":20980542_7_0" index="0" disallow="tram rail_urban rail rail_electric pedestrian ship" speed="6.65" length="10.04" shape="498.99,596.80 500.22,598.39 500.33,600.37 499.33,602.73 497.20,605.48"/>
    </edge>
    <edge id=":20980542_c0" function="crossing" crossingEdges="-gneE146 gneE146">
        <lane id=":20980542_c0_0" index="0" allow="pedestrian" speed="1.00" length="6.40" width="4.00" shape="509.04,602.92 504.89,607.78"/>
    </edge>
    <edge id=":20980542_w0" function="walkingarea">
        <lane id=":20980542_w0_0" index="0" allow="pedestrian" speed="1.00" length="3.25" width="4.00" shape="500.75,608.72 502.96,610.74 505.11,610.60 506.41,609.08 505.32,608.27 504.28,607.76 503.31,607.55 502.39,607.64 501.54,608.03"/>
    </edge>
    <edge id=":20980542_w1" function="walkingarea">
        <lane id=":20980542_w1_0" index="0" allow="pedestrian" speed="1.00" length="4.15" width="4.00" shape="510.57,604.21 512.27,601.81 512.07,599.82 511.57,598.84 509.31,596.86 508.47,598.06 508.05,599.28 508.05,600.50 508.47,601.73 509.31,602.97"/>
    </edge>
    <edge id=":20980548_w0" function="walkingarea">
        <lane id=":20980548_w0_0" index="0" allow="pedestrian" speed="1.00" length="8.40" width="2.00" shape="457.65,378.46 459.16,377.15 451.30,383.95 452.81,382.64"/>
    </edge>
    <edge id=":2394230286_0" function="internal">
        <lane id=":2394230286_0_0" index="0" disallow="tram rail_urban rail rail_electric pedestrian ship" speed="13.89" length="5.06" shape="621.34,772.33 618.06,776.18"/>
    </edge>
    <edge id=":2394230286_1" function="internal">
        <lane id=":2394230286_1_0" index="0" disallow="tram rail_urban rail rail_electric pedestrian ship" speed="13.89" length="5.03" shape="615.63,774.09 618.90,770.26"/>
    </edge>
    <edge id=":2394230286_w0" function="walkingarea">
        <lane id=":2394230286_w0_0" index="0" allow="pedestrian" speed="1.00" length="5.08" width="2.00" shape="619.27,777.22 620.79,778.53 624.09,774.66 622.56,773.37"/>
    </edge>
    <edge id=":2394230286_w1" function="walkingarea">
        <lane id=":2394230286_w1_0" index="0" allow="pedestrian" speed="1.00" length="4.04" width="2.00" shape="617.67,769.23 616.15,767.94 613.95,768.11 612.70,769.67 612.90,771.74 614.42,773.05"/>
    </edge>
    <edge id=":25576841_0" function="internal">
        <lane id=":25576841_0_0" index="0" disallow="tram rail_urban rail rail_electric pedestrian ship" speed="8.33" length="9.62" shape="792.34,750.50 790.31,752.50 788.96,753.92 787.67,755.39 785.81,757.56"/>
    </edge>
    <edge id=":25576841_1" function="internal">
        <lane id=":25576841_1_0" index="0" disallow="tram rail_urban rail rail_electric pedestrian ship" speed="7.05" length="11.17" shape="792.34,750.50 790.29,751.75 788.02,751.73 785.54,750.45 782.85,747.90"/>
    </edge>
    <edge id=":25576841_2" function="internal">
        <lane id=":25576841_2_0" index="0" disallow="tram rail_urban rail rail_electric pedestrian ship" speed="6.62" length="8.40" shape="783.39,755.47 784.49,753.68 784.77,751.82 784.22,749.89 782.85,747.90"/>
    </edge>
    <edge id=":25576841_3" function="internal">
        <lane id=":25576841_3_0" index="0" disallow="tram rail_urban rail rail_electric pedestrian ship" speed="8.33" length="9.91" shape="783.39,755.47 785.31,753.23 786.63,751.72 788.02,750.26 790.12,748.20"/>
    </edge>
    <edge id=":25576841_w0" function="walkingarea">
        <lane id=":25576841_w0_0" index="0" allow="pedestrian" speed="1.00" length="9.38" width="2.00" shape="787.02,758.60 788.54,759.91 794.84,753.10 793.46,751.66 792.01,753.06 790.96,754.12 790.12,755.02 789.31,755.94 788.34,757.07"/>
    </edge>
    <edge id=":25576841_w1" function="walkingarea">
        <lane id=":25576841_w1_0" index="0" allow="pedestrian" speed="1.00" length="3.52" width="2.00" shape="789.01,747.05 787.63,745.61 785.56,745.52 784.05,746.84 784.85,747.60 785.66,748.07 786.48,748.24 787.31,748.13 788.16,747.74"/>
    </edge>
    <edge id=":25576841_w2" function="walkingarea">
        <lane id=":25576841_w2_0" index="0" allow="pedestrian" speed="1.00" length="4.19" width="2.00" shape="781.65,748.96 780.15,750.28 780.66,753.11 782.18,754.42 782.75,753.59 783.06,752.72 783.10,751.83 782.88,750.90 782.40,749.94"/>
    </edge>
    <edge id=":25576845_0" function="internal">
        <lane id=":25576845_0_0" index="0" disallow="tram rail_urban rail rail_electric pedestrian ship" speed="6.49" length="9.09" shape="658.61,737.05 656.52,735.69 654.50,735.33 652.56,735.98 650.69,737.64"/>
    </edge>
    <edge id=":25576845_1" function="internal">
        <lane id=":25576845_1_0" index="0" disallow="tram rail_urban rail rail_electric pedestrian ship" speed="11.11" length="14.50" shape="658.61,737.05 647.65,727.56"/>
    </edge>
    <edge id=":25576845_2" function="internal">
        <lane id=":25576845_2_0" index="0" disallow="tram rail_urban rail rail_electric pedestrian ship" speed="7.67" length="12.75" shape="658.61,737.05 655.97,734.17 654.71,731.37 654.83,728.64 656.33,726.00"/>
    </edge>
    <edge id=":25576845_3" function="internal">
        <lane id=":25576845_3_0" index="0" disallow="tram rail_urban rail rail_electric pedestrian ship" speed="5.98" length="7.50" shape="649.73,725.13 651.74,726.55 653.51,727.17 655.04,726.99 656.33,726.00"/>
    </edge>
    <edge id=":25576845_4" function="internal">
        <lane id=":25576845_4_0" index="0" disallow="tram rail_urban rail rail_electric pedestrian ship" speed="11.11" length="14.54" shape="649.73,725.13 660.72,734.65"/>
    </edge>
    <edge id=":25576845_5" function="internal">
        <lane id=":25576845_5_0" index="0" disallow="tram rail_urban rail rail_electric pedestrian ship" speed="8.04" length="14.30" shape="649.73,725.13 652.30,728.06 653.32,731.12 652.78,734.32 650.69,737.64"/>
    </edge>
    <edge id=":25576845_6" function="internal">
        <lane id=":25576845_6_0" index="0" disallow="tram rail_urban rail rail_electric pedestrian ship" speed="6.56" length="9.15" shape="648.25,735.58 649.59,733.44 649.94,731.40 649.29,729.44 647.65,727.56"/>
    </edge>
    <edge id=":25576845_7" function="internal">
        <lane id=":25576845_7_0" index="0" disallow="tram rail_urban rail rail_electric pedestrian ship" speed="11.11" length="12.53" shape="648.25,735.58 656.33,726.00"/>
    </edge>
    <edge id=":25576845_8" function="internal">
        <lane id=":25576845_8_0" index="0" disallow="tram rail_urban rail rail_electric pedestrian ship" speed="7.98" length="14.32" shape="648.25,735.58 651.19,732.96 654.25,731.94 657.42,732.50 660.72,734.65"/>
    </edge>
    <edge id=":25576845_w0" function="walkingarea">
        <lane id=":25576845_w0_0" index="0" allow="pedestrian" speed="1.00" length="4.23" width="2.00" shape="651.91,738.68 653.44,739.97 656.23,739.76 657.55,738.26 656.55,737.53 655.58,737.12 654.62,737.03 653.70,737.26 652.79,737.81"/>
    </edge>
    <edge id=":25576845_w3" function="walkingarea">
        <lane id=":25576845_w3_0" index="0" allow="pedestrian" speed="1.00" length="4.36" width="2.00" shape="646.61,728.78 645.31,730.30 645.50,733.25 647.03,734.54 647.75,733.51 648.16,732.51 648.25,731.53 648.02,730.59 647.47,729.67"/>
    </edge>
    <edge id=":25576849_w0" function="walkingarea">
        <lane id=":25576849_w0_0" index="0" allow="pedestrian" speed="1.00" length="8.40" width="2.00" shape="920.04,684.39 920.58,686.32 917.80,676.30 918.34,678.23"/>
    </edge>
    <edge id=":271755125_0" function="internal">
        <lane id=":271755125_0_0" index="0" disallow="tram rail_urban rail rail_electric pedestrian ship" speed="6.47" length="8.67" shape="714.23,669.79 712.82,667.72 712.33,665.75 712.76,663.88 714.11,662.12"/>
    </edge>
    <edge id=":271755125_1" function="internal">