<?xml version="1.0" encoding="UTF-8"?>

<!-- generated on Fri Jun  7 11:18:36 2019 by Eclipse SUMO duarouter Version 1.2.0
<configuration xmlns:xsi="http://www.w3.org/2001/XMLSchema-instance" xsi:noNamespaceSchemaLocation="http://sumo.dlr.de/xsd/duarouterConfiguration.xsd">

    <input>
        <net-file value="hochschule_muenchen.net.xml"/>
        <route-files value="trips.trips.xml"/>
    </input>

    <output>
        <output-file value="hochschule_muenchen.pedestrians.rou.xml"/>
        <alternatives-output value="hochschule_muenchen.pedestrians.rou.alt.xml"/>
    </output>

    <time>
        <begin value="0.0"/>
        <end value="50.0"/>
    </time>

    <report>
        <no-warnings value="true"/>
        <ignore-errors value="true"/>
        <no-step-log value="true"/>
    </report>

</configuration>
-->

<routes xmlns:xsi="http://www.w3.org/2001/XMLSchema-instance" xsi:noNamespaceSchemaLocation="http://sumo.dlr.de/xsd/routes_file.xsd">
    <vType id="pedestrian" vClass="pedestrian"/>
    <person id="0" type="pedestrian" depart="0.00">
        <walk edges="gneE155 gneE3 gneE4 gneE11 gneE12 -gneE102 gneE102 -gneE104 -292630184#1 -292630184#2 292630184#2 gneE175.63 gneE175 gneE160 -4520029#5 -4520029#6 4520029#6 4520029#5 423191019#0"/>
    </person>
    <person id="1" type="pedestrian" depart="0.25">
        <walk edges="gneE155 gneE7.32 gneE7 38759699#0 gneE132.183 gneE132.166 gneE132 gneE55.82 gneE55.22 gneE55"/>
    </person>
    <person id="2" type="pedestrian" depart="0.50">
        <walk edges="-gneE102 gneE12 gneE154 gneE7 38759699#0 gneE132.183 gneE140 gneE134 gneE97 161652311#5 gneE87 gneE88 346311427#0 346311427#0.6 346311427#1 346311427#2 346311427#3 gneE122"/>
    </person>
    <person id="3" type="pedestrian" depart="0.75">
        <walk edges="4520029#6 -4520029#6 -4520029#5 gneE160 gneE175 gneE175.63 292630184#2 -292630184#2 -292630184#1 -gneE104 gneE102 -gneE102 gneE12 gneE154 gneE7 gneE34 313576542#2 -gneE32 gneE22 gneE157 423205019"/>
    </person>
    <person id="4" type="pedestrian" depart="1.00">
        <walk edges="-450396602#2 346311427#3 346311427#2 346311427#1 346311427#0.6 346311427#0 gneE88 gneE87 161652311#5 gneE97 gneE134 gneE140 gneE132.183 38759699#0 gneE34 gneE142.111 gneE142.97 gneE142.72 gneE149"/>
    </person>
    <person id="5" type="pedestrian" depart="1.25">
        <walk edges="-gneE25 -gneE30 gneE163 gneE141 gneE140 gneE134 gneE97 161652311#5 gneE87 gneE88 346311427#0 346311427#0.6 346311427#1 346311427#2 -gneE121"/>
    </person>
    <person id="6" type="pedestrian" depart="1.50">
        <walk edges="gneE167 gneE55.22 gneE55.82 gneE132 gneE132.166 gneE132.183 38759699#0 gneE7 gneE154 gneE12 -gneE102 gneE102 -gneE104 -292630184#1 -292630184#2 292630184#2 gneE175.63 gneE176.9"/>
    </person>
    <person id="7" type="pedestrian" depart="1.75">
        <walk edges="313576542#2 gneE37 gneE141 gneE140 gneE134 gneE97 161652311#5 gneE87 gneE88 346311427#0 346311427#0.6 346311427#1 346311427#2 346311427#3 -gneE122"/>
    </person>
    <person id="8" type="pedestrian" depart="2.00">
        <walk edges="-4520029#5 gneE160 gneE175 gneE175.63 292630184#2 -292630184#2 -292630184#1 -gneE104 gneE102 -gneE102 gneE12 gneE154 gneE7 38759699#0"/>
    </person>
    <person id="9" type="pedestrian" depart="2.25">
        <walk edges="4520029#6 -4520029#6 -4520029#5 gneE160 gneE175 gneE175.63 292630184#2 -292630184#2 -292630184#1 -gneE104 gneE102 -gneE102 gneE12 gneE154 gneE7 gneE34 gneE142.111 gneE142.97 gneE142.72 gneE142"/>
    </person>
    <person id="10" type="pedestrian" depart="2.50">
        <walk edges="423205028#0 gneE157 gneE22 -gneE32 313576542#2 gneE34 gneE7 gneE154 gneE12 -gneE102 gneE102 -gneE104 -292630184#1 -292630184#2 292630184#2 gneE175.63 gneE176"/>
    </person>
    <person id="11" type="pedestrian" depart="2.75">
        <walk edges="303588543#3 gneE110 303809479 -24998362#1 gneE180 gneE175.63 292630184#2 -292630184#2 -292630184#1 -gneE104 gneE102 -gneE102 gneE12 gneE154 gneE7 38759699#0 gneE132.183 gneE132.166 gneE132 gneE55.82 gneE55.22"/>
    </person>
    <person id="12" type="pedestrian" depart="3.00">
        <walk edges="gneE55.22 gneE55.82 -gneE56 -97594013#3 153191825#2 153191825#1 450402225#1 450402225#2 153191826#1 161652311#5 gneE87 gneE88 161652311#9 24998362#0"/>
    </person>
    <person id="13" type="pedestrian" depart="3.25">
        <walk edges="gneE55 gneE55.22 gneE55.82 gneE132 gneE132.166 gneE132.183 38759699#0 gneE34 gneE142.111 gneE151 433685530#1 gneE14"/>
    </person>
    <person id="14" type="pedestrian" depart="3.50">
        <walk edges="gneE55 gneE55.22 gneE55.82 gneE132 gneE132.166 gneE132.183 38759699#0 gneE7 gneE154 gneE12 -gneE102 gneE102 -gneE104 -292630184#1 -292630184#2 292630184#2 gneE175.63 gneE175 gneE160"/>
    </person>
    <person id="15" type="pedestrian" depart="3.75">
        <walk edges="292630184#2 -292630184#2 -292630184#1 -gneE104 gneE102 -gneE102 gneE12 gneE154 gneE7 38759699#0 gneE132.183 gneE132.166 gneE132 gneE55.82 gneE55.22 gneE167 gneE168 456607197"/>
    </person>
    <person id="16" type="pedestrian" depart="4.00">
        <walk edges="-450396602#2 346311427#3 346311427#2 346311427#1 346311427#0.6 346311427#0 gneE88 gneE87 161652311#5 gneE97 gneE134 gneE140 gneE132.183 38759699#0 gneE34 gneE142.111 gneE151 433685530#1 gneE14"/>
    </person>
    <person id="17" type="pedestrian" depart="4.25">
        <walk edges="4520029#6 -4520029#6 -4520029#5 gneE160 gneE175 gneE175.63 292630184#2 -292630184#2 -292630184#1 -gneE104 gneE102 -gneE102 gneE12 gneE154 gneE7 gneE34 313576542#2 -gneE32 gneE22 gneE157 423205019"/>
    </person>
    <person id="18" type="pedestrian" depart="4.50">
        <walk edges="-292630184#2 -292630184#1 -gneE104 gneE102 -gneE102 gneE12 gneE154 gneE7 38759699#0 gneE132.183 gneE140 gneE134 153191823#1 153191823#0 153191825#2"/>
    </person>
    <person id="19" type="pedestrian" depart="4.75">
        <walk edges="-gneE22.26 -gneE22.65 gneE32 313576542#2 gneE34 gneE7 gneE154 gneE12 -gneE102 gneE102 -gneE104 -292630184#1 -292630184#2 292630184#2 gneE175.63 gneE176.9 24998184 -24998184 gneE159"/>
    </person>
    <person id="20" type="pedestrian" depart="5.00">
        <walk edges="423191019#0 4520029#5 4520029#6 -4520029#6 -4520029#5 gneE160 gneE175 gneE175.63 292630184#2 -292630184#2 -292630184#1 -gneE104 gneE102 -gneE102 gneE12 gneE11 gneE4 gneE3 gneE155 gneE7.108"/>
    </person>
    <person id="21" type="pedestrian" depart="5.25">
        <walk edges="gneE141 gneE132.183 38759699#0 gneE7 gneE154 gneE12 -gneE102 gneE102 -gneE104 -292630184#1 -292630184#2"/>
    </person>
    <person id="22" type="pedestrian" depart="5.50">
        <walk edges="gneE127 -24998362#3 24998184 gneE176.9 gneE175.63 292630184#2 -292630184#2 -292630184#1 -gneE104 gneE102 -gneE102 gneE12 gneE154 gneE7 gneE34 313576542#2 -gneE32 gneE19 -gneE19"/>
    </person>
    <person id="23" type="pedestrian" depart="5.75">
        <walk edges="346311427#3 346311427#2 346311427#1 346311427#0.6 346311427#0 gneE88 gneE87 161652311#5 gneE97 gneE134 gneE140 gneE132.183 38759699#0 gneE34 gneE142.111 gneE151 433685530#1"/>
    </person>
    <person id="24" type="pedestrian" depart="6.00">
        <walk edges="gneE96 153191823#0 153191823#1 gneE134 gneE140 gneE132.183 38759699#0 gneE7 gneE154 gneE12 -gneE102"/>
    </person>
    <person id="25" type="pedestrian" depart="6.25">
        <walk edges="gneE158 gneE22.53 gneE22 -gneE32 313576542#2 gneE34 gneE7 gneE154 gneE12 -gneE102 gneE102 -gneE104 -292630184#1 -292630184#2 292630184#2 gneE175.63 gneE176.9"/>
    </person>
    <person id="26" type="pedestrian" depart="6.50">
        <walk edges="-gneE19 gneE32 gneE37 gneE141 gneE132.166 gneE132 gneE55.82 gneE55.22 gneE167 gneE168"/>
    </person>
    <person id="27" type="pedestrian" depart="6.75">
        <walk edges="gneE22 -gneE32 313576542#2 gneE34 gneE7 gneE154 gneE12 -gneE102 gneE102 -gneE104 -292630184#1 -292630184#2 292630184#2"/>
    </person>
    <person id="28" type="pedestrian" depart="7.00">
        <walk edges="-gneE121 346311427#2 346311427#1 346311427#0.6 346311427#0 gneE88 gneE87 161652311#5 gneE97 gneE134 gneE140 gneE141 gneE37 gneE32 gneE22 gneE157 423205019"/>
    </person>
    <person id="29" type="pedestrian" depart="7.25">
        <walk edges="-gneE19 gneE19 -gneE32 313576542#2 gneE34 gneE7 gneE154 gneE12 -gneE102 gneE102 -gneE104 -292630184#1 -292630184#2 292630184#2 gneE175.63"/>
    </person>
    <person id="30" type="pedestrian" depart="7.50">
        <walk edges="gneE155 gneE7.32 gneE7 38759699#0 gneE132.183 gneE132.166 gneE132 gneE55.82 gneE55.22 gneE55"/>
    </person>
    <person id="31" type="pedestrian" depart="7.75">
        <walk edges="456607197 gneE168 gneE167 gneE55.22 gneE55.82 gneE132 gneE132.166 gneE132.183 38759699#0 gneE7 gneE154 gneE12 -gneE102 gneE102 -gneE104 -292630184#1 -292630184#2 292630184#2 gneE175.63 gneE176"/>
    </person>
    <person id="32" type="pedestrian" depart="8.00">
        <walk edges="-gneE121 346311427#2 346311427#1 346311427#0.6 346311427#0 gneE88 gneE87 161652311#5 gneE97 gneE134 gneE140 gneE132.183 38759699#0 gneE34 gneE142.111 gneE142.97 gneE142.72 gneE149"/>
    </person>
    <person id="33" type="pedestrian" depart="8.25">
        <walk edges="gneE155 gneE7.32 gneE7 38759699#0 gneE132.183 gneE132.166 gneE132 gneE55.82 gneE55.22 gneE55"/>
    </person>
    <person id="34" type="pedestrian" depart="8.50">
        <walk edges="gneE142.97 gneE142.111 gneE34 gneE7 gneE154 gneE12 -gneE102 gneE102 -gneE104 -292630184#1 -292630184#2 292630184#2 gneE175.63 gneE175 gneE160 -4520029#5"/>
    </person>
    <person id="35" type="pedestrian" depart="8.75">
        <walk edges="gneE102 -gneE102 gneE12 gneE154 gneE7 38759699#0 gneE132.183 gneE132.166 gneE132 gneE55.82 450396602#1"/>
    </person>
    <person id="36" type="pedestrian" depart="9.00">
        <walk edges="346311427#4 346311427#3 346311427#2 346311427#1 346311427#0.6 346311427#0 gneE88 gneE87 161652311#5 gneE97 gneE134 gneE140 gneE132.183 38759699#0 gneE7 gneE154 gneE12"/>
    </person>
    <person id="37" type="pedestrian" depart="9.25">
        <walk edges="4520029#6 -4520029#6 -4520029#5 gneE160 gneE175 gneE175.63 292630184#2 -292630184#2 -292630184#1 -gneE104 gneE102 -gneE102 gneE12 gneE154 gneE7 gneE34 313576542#2 -gneE32 gneE22 gneE157 423205028#0"/>
    </person>
    <person id="38" type="pedestrian" depart="9.50">
        <walk edges="gneE168 gneE167 gneE55.22 gneE55.82 gneE132 gneE132.166 gneE132.183 38759699#0 gneE7 gneE154 gneE12 -gneE102 gneE102 -gneE104 -292630184#1 -292630184#2"/>
    </person>
    <person id="39" type="pedestrian" depart="9.75">
        <walk edges="gneE142.72 gneE142.97 gneE142.111 gneE34 gneE7 gneE154 gneE12 -gneE102 gneE102 -gneE104 -292630184#1 -292630184#2 292630184#2 gneE175.63 gneE175 gneE160 -4520029#5"/>
    </person>
    <person id="40" type="pedestrian" depart="10.00">
        <walk edges="-gneE19 gneE32 gneE37 gneE141 gneE140 gneE134 gneE97 161652311#5 gneE87 gneE88 161652311#9"/>
    </person>
    <person id="41" type="pedestrian" depart="10.25">
        <walk edges="gneE34 gneE7 gneE154 gneE12 -gneE102 gneE102 -gneE104 -292630184#1 -292630184#2 292630184#2 gneE175.63 gneE175 gneE160 -4520029#5 -4520029#6 4520029#6"/>
    </person>
    <person id="42" type="pedestrian" depart="10.50">
        <walk edges="346311427#3 346311427#2 346311427#1 346311427#0.6 346311427#0 gneE88 gneE87 161652311#5 gneE97 gneE134 gneE140 gneE141 gneE37 gneE32 -gneE19"/>
    </person>
    <person id="43" type="pedestrian" depart="10.75">
        <walk edges="161652311#9 gneE88 gneE87 161652311#5 153191826#1 450402225#2 450402225#1 153191825#1 153191825#2 -97594013#3 -gneE56 gneE55.82 gneE55.22 gneE55"/>
    </person>
    <person id="44" type="pedestrian" depart="11.00">
        <walk edges="gneE170 450402225#2 450402225#3 153191823#1 gneE134 gneE140 gneE132.183 38759699#0 gneE7 gneE154 gneE12 -gneE102 gneE102 -gneE104 -292630184#1 -292630184#2"/>
    </person>
    <person id="45" type="pedestrian" depart="11.25">
        <walk edges="-292630184#1 -gneE104 gneE102 -gneE102 gneE12 gneE154 gneE7 gneE34 313576542#2 gneE32 -gneE22.65 -gneE22.26 -gneE22 gneE30"/>
    </person>
    <person id="46" type="pedestrian" depart="11.50">
        <walk edges="4520029#5 4520029#6 -4520029#6 -4520029#5 gneE160 gneE175 gneE175.63 292630184#2 -292630184#2 -292630184#1 -gneE104 gneE102 -gneE102 gneE12 gneE154 gneE7 gneE34 gneE142.111 gneE142.97 gneE142.72"/>
    </person>
    <person id="47" type="pedestrian" depart="11.75">
        <walk edges="-gneE102 gneE12 gneE154 gneE7 38759699#0 gneE132.183 gneE132.166 gneE132 gneE55.82 450396602#1"/>
    </person>
    <person id="48" type="pedestrian" depart="12.00">
        <walk edges="gneE142 gneE142.72 gneE142.97 gneE142.111 gneE34 38759699#0 gneE132.183 gneE140 gneE134 153191823#1 153191823#0 -gneE96 -97594013#0 gneE95"/>
    </person>
    <person id="49" type="pedestrian" depart="12.25">
        <walk edges="423205019 gneE157 gneE22 -gneE32 313576542#2 gneE34 gneE7 gneE154 gneE12 -gneE102 gneE102 -gneE104 -292630184#1 -292630184#2 292630184#2 gneE175.63 gneE175 gneE160 -4520029#5 -4520029#6 4520029#6 4520029#5"/>
    </person>
    <person id="50" type="pedestrian" depart="12.50">
        <walk edges="-292630184#2 -292630184#1 -gneE104 gneE102 -gneE102 gneE12 gneE154 gneE7 gneE34 313576542#2 -gneE32 gneE19 -gneE19"/>
    </person>
    <person id="51" type="pedestrian" depart="12.75">
        <walk edges="456607197 gneE168 gneE167 gneE55.22 gneE55.82 gneE132 gneE132.166 gneE132.183 38759699#0 gneE34 gneE142.111 gneE151 433685530#1 gneE14"/>
    </person>
    <person id="52" type="pedestrian" depart="13.00">
        <walk edges="-4520029#5 gneE160 gneE175 gneE175.63 292630184#2 -292630184#2 -292630184#1 -gneE104 gneE102 -gneE102 gneE12 gneE154 gneE7 gneE34 gneE142.111 gneE151 433685530#1 gneE14"/>
    </person>
    <person id="53" type="pedestrian" depart="13.25">
        <walk edges="-292630184#2 -292630184#1 -gneE104 gneE102 -gneE102 gneE12 gneE154 gneE7 38759699#0 gneE132.183 gneE141"/>
    </person>
    <person id="54" type="pedestrian" depart="13.50">
        <walk edges="-4520029#6 -4520029#5 gneE160 gneE175 gneE175.63 292630184#2 -292630184#2 -292630184#1 -gneE104 gneE102 -gneE102 gneE12 gneE154 gneE7 gneE34 313576542#2 -gneE32 gneE22 gneE22.53 gneE22.91 gneE25"/>
    </person>
    <person id="55" type="pedestrian" depart="13.75">
        <walk edges="gneE56 gneE132 gneE132.166 gneE132.183 38759699#0 gneE7 gneE154 gneE12 -gneE102"/>
    </person>
    <person id="56" type="pedestrian" depart="14.00">
        <walk edges="-4520029#6 -4520029#5 gneE160 gneE175 gneE175.63 292630184#2 -292630184#2 -292630184#1 -gneE104 gneE102 -gneE102 gneE12 gneE154 gneE7 gneE34 313576542#2 gneE37 gneE163"/>
    </person>
    <person id="57" type="pedestrian" depart="14.25">
        <walk edges="-gneE19 gneE32 gneE37 gneE141 gneE140 gneE134 gneE97 161652311#5 gneE87 gneE88 346311427#0 346311427#0.6 346311427#1"/>
    </person>
    <person id="58" type="pedestrian" depart="14.50">
        <walk edges="-gneE102 gneE12 gneE154 gneE7 38759699#0 gneE132.183 gneE140 gneE134 153191823#1 153191823#0 -gneE96"/>
    </person>
    <person id="59" type="pedestrian" depart="14.75">
        <walk edges="gneE142 gneE142.72 gneE142.97 gneE142.111 gneE34 38759699#0 gneE132.183 gneE132.166 gneE132 gneE55.82 gneE55.22"/>
    </person>
    <person id="60" type="pedestrian" depart="15.00">
        <walk edges="4520029#6 -4520029#6 -4520029#5 gneE160 gneE175 gneE175.63 292630184#2 -292630184#2 -292630184#1 -gneE104 gneE102 -gneE102 gneE12 gneE154 gneE7 gneE34 313576542#2 -gneE32 gneE22 gneE157 423205019"/>
    </person>
    <person id="61" type="pedestrian" depart="15.25">
        <walk edges="gneE149 gneE142.72 gneE142.97 gneE142.111 gneE34 38759699#0 gneE132.183 gneE132.166 gneE132 gneE55.82 -450396602#1"/>
    </person>
    <person id="62" type="pedestrian" depart="15.50">
        <walk edges="-450396602#2 346311427#3 346311427#2 346311427#1 346311427#0.6 346311427#0 gneE88 gneE87 161652311#5 gneE97 gneE134 gneE140 gneE132.183 38759699#0 gneE7 gneE154 gneE12"/>
    </person>
    <person id="63" type="pedestrian" depart="15.75">
        <walk edges="gneE159 -24998184 24998184 gneE176.9 gneE175.63 292630184#2 -292630184#2 -292630184#1 -gneE104 gneE102 -gneE102 gneE12 gneE154 gneE7 gneE34 gneE142.111 gneE151 433685530#1 gneE14"/>
    </person>
    <person id="64" type="pedestrian" depart="16.00">
        <walk edges="456607199#1 456607197 gneE168 gneE167 gneE55.22 gneE55.82 gneE132 gneE132.166 gneE132.183 38759699#0 gneE7 gneE154 gneE11 gneE4 gneE3"/>
    </person>
    <person id="65" type="pedestrian" depart="16.25">
        <walk edges="450396602#1 gneE55.82 gneE132 gneE132.166 gneE132.183 38759699#0 gneE7 gneE154 gneE12 -gneE102 gneE102 -gneE104 -292630184#1 -292630184#2 292630184#2 gneE175.63 gneE175"/>
    </person>
    <person id="66" type="pedestrian" depart="16.50">
        <walk edges="gneE176.9 gneE175.63 292630184#2 -292630184#2 -292630184#1 -gneE104 gneE102 -gneE102 gneE12 gneE154 gneE7 38759699#0 gneE132.183 gneE132.166 gneE132 gneE55.82 gneE55.22 gneE55"/>
    </person>
    <person id="67" type="pedestrian" depart="16.75">
        <walk edges="423205028#0 gneE157 gneE22 gneE32 gneE37 gneE141 gneE140 gneE134 gneE97 161652311#5 gneE87 gneE88 346311427#0 346311427#0.6 346311427#1 346311427#2 346311427#3 gneE122"/>
    </person>
    <person id="68" type="pedestrian" depart="17.00">
        <walk edges="-24998362#0 gneE180 gneE175.63 292630184#2 -292630184#2 -292630184#1 -gneE104 gneE102 -gneE102 gneE12 gneE154 gneE7 38759699#0 gneE132.183 gneE132.166 gneE132 gneE55.82 gneE55.22 gneE55"/>
    </person>
    <person id="69" type="pedestrian" depart="17.25">
        <walk edges="346311427#4 346311427#3 346311427#2 346311427#1 346311427#0.6 346311427#0 gneE88 gneE87 161652311#5 gneE97 gneE134 gneE140 gneE132.183 38759699#0 gneE7 gneE154"/>
    </person>
    <person id="70" type="pedestrian" depart="17.50">
        <walk edges="gneE155 gneE7.32 gneE7 38759699#0 gneE132.183 gneE132.166 gneE132 gneE55.82 450396602#1"/>
    </person>
    <person id="71" type="pedestrian" depart="17.75">
        <walk edges="gneE14 433685530#1 gneE151 gneE142.111 gneE34 38759699#0 gneE132.183 gneE140 gneE134 gneE97 161652311#5 gneE87 gneE88 346311427#0 346311427#0.6 346311427#1 346311427#2 -gneE121"/>
    </person>
    <person id="72" type="pedestrian" depart="18.00">
        <walk edges="346311427#3 346311427#2 346311427#1 346311427#0.6 346311427#0 gneE88 gneE87 161652311#5 gneE97 gneE134 gneE140 gneE132.183 38759699#0 gneE34 gneE142.111 gneE151 433685530#1 gneE14"/>
    </person>
    <person id="73" type="pedestrian" depart="18.25">
        <walk edges="-gneE22.26 -gneE22.65 gneE32 313576542#2 gneE34 gneE7 gneE154 gneE12 -gneE102 gneE102 -gneE104 -292630184#1 -292630184#2"/>
    </person>
    <person id="74" type="pedestrian" depart="18.50">
        <walk edges="gneE157 gneE22 -gneE32 313576542#2 gneE34 gneE7 gneE154 gneE12 -gneE102 gneE102 -gneE104 -292630184#1 -292630184#2 292630184#2 gneE175.63 gneE175 gneE160 -4520029#5 -4520029#6"/>
    </person>
    <person id="75" type="pedestrian" depart="18.75">
        <walk edges="gneE121 346311427#2 346311427#1 346311427#0.6 346311427#0 gneE88 gneE87 161652311#5 gneE97 gneE134 gneE140 gneE132.183 38759699#0 gneE34 gneE142.111 gneE142.97 gneE142.72 gneE149"/>
    </person>
    <person id="76" type="pedestrian" depart="19.00">
        <walk edges="4520029#6 -4520029#6 -4520029#5 gneE160 gneE175 gneE175.63 292630184#2 -292630184#2 -292630184#1 -gneE104 gneE102 -gneE102 gneE12 gneE154 gneE7 38759699#0 gneE132.183 gneE132.166"/>
    </person>
    <person id="77" type="pedestrian" depart="19.25">
        <walk edges="gneE109 gneE107 gneE127 -24998362#3 24998184 gneE176.9 gneE175.63 292630184#2 -292630184#2 -292630184#1 -gneE104 gneE102 -gneE102 gneE12 gneE154 gneE7 gneE34 313576542#2 -gneE32 gneE22 gneE157 423205028#0"/>
    </person>
    <person id="78" type="pedestrian" depart="19.50">
        <walk edges="gneE149 gneE142.72 gneE142.97 gneE142.111 gneE34 38759699#0 gneE132.183 gneE132.166 gneE132 gneE55.82 gneE55.22 gneE167 gneE168 456607197"/>
    </person>
    <person id="79" type="pedestrian" depart="19.75">
        <walk edges="-292630184#1 -gneE104 gneE102 -gneE102 gneE12 gneE154 gneE7 gneE34 313576542#2 -gneE32 gneE22 gneE22.53 gneE22.91 gneE25"/>
    </person>
    <person id="80" type="pedestrian" depart="20.00">
        <walk edges="4520029#6 -4520029#6 -4520029#5 gneE160 gneE175 gneE175.63 292630184#2 -292630184#2 -292630184#1 -gneE104 gneE102 -gneE102"/>
    </person>
    <person id="81" type="pedestrian" depart="20.25">
        <walk edges="gneE142 gneE142.72 gneE142.97 gneE142.111 gneE34 gneE7 gneE154 gneE12 -gneE102 gneE102 -gneE104 -292630184#1 -292630184#2 292630184#2 gneE175.63 gneE175 gneE160 -4520029#5 -4520029#6 4520029#6 4520029#5"/>
    </person>
    <person id="82" type="pedestrian" depart="20.50">
        <walk edges="-gneE22 -gneE22.26 -gneE22.65 gneE32 313576542#2 gneE34 gneE7 gneE154 gneE12 -gneE102 gneE102 -gneE104 -292630184#1"/>
    </person>
    <person id="83" type="pedestrian" depart="20.75">
        <walk edges="4520029#5 4520029#6 -4520029#6 -4520029#5 gneE160 gneE175 gneE175.63 292630184#2 -292630184#2 -292630184#1 -gneE104 gneE102 -gneE102 gneE12 gneE154 gneE7 gneE34 313576542#2 gneE37"/>
    </person>
    <person id="84" type="pedestrian" depart="21.00">
        <walk edges="450402225#2 450402225#3 153191823#1 gneE134 gneE140 gneE132.183 38759699#0 gneE7 gneE154 gneE12 -gneE102"/>
    </person>
    <person id="85" type="pedestrian" depart="21.25">
        <walk edges="-gneE22 -gneE22.26 -gneE22.65 gneE32 313576542#2 gneE34 gneE7 gneE154 gneE12 -gneE102 gneE102 -gneE104 -292630184#1 -292630184#2 292630184#2"/>
    </person>
    <person id="86" type="pedestrian" depart="21.50">
        <walk edges="gneE55.22 gneE55.82 gneE132 gneE132.166 gneE132.183 38759699#0 gneE7 gneE154 gneE11 gneE4"/>
    </person>
    <person id="87" type="pedestrian" depart="21.75">
        <walk edges="-gneE122 346311427#3 346311427#2 346311427#1 346311427#0.6 346311427#0 gneE88 gneE87 161652311#5 gneE97 gneE134 gneE140 gneE132.183 38759699#0 gneE34 gneE142.111 gneE142.97"/>
    </person>
    <person id="88" type="pedestrian" depart="22.00">
        <walk edges="450396602#1 gneE55.82 gneE132 gneE132.166 gneE132.183 38759699#0 gneE7 gneE7.32 gneE155"/>
    </person>
    <person id="89" type="pedestrian" depart="22.25">
        <walk edges="gneE176 gneE175.63 292630184#2 -292630184#2 -292630184#1 -gneE104 gneE102 -gneE102 gneE12 gneE154 gneE7 gneE34 313576542#2 -gneE32 gneE22"/>
    </person>
    <person id="90" type="pedestrian" depart="22.50">
        <walk edges="4520029#5 4520029#6 -4520029#6 -4520029#5 gneE160 gneE175 gneE175.63 292630184#2 -292630184#2 -292630184#1 -gneE104 gneE102 -gneE102 gneE12 gneE154 gneE7 gneE34 gneE142.111"/>
    </person>
    <person id="91" type="pedestrian" depart="22.75">
        <walk edges="423205019 gneE157 gneE22 -gneE32 313576542#2 gneE34 gneE7 gneE154 gneE12 -gneE102 gneE102 -gneE104 -292630184#1 -292630184#2 292630184#2 gneE175.63 gneE175 gneE160 -4520029#5 -4520029#6 4520029#6 4520029#5 423191019#0"/>
    </person>
    <person id="92" type="pedestrian" depart="23.00">
        <walk edges="gneE32 313576542#2 gneE34 gneE7 gneE154 gneE12 -gneE102 gneE102 -gneE104 -292630184#1 -292630184#2 292630184#2 gneE175.63 gneE176.9 24998184"/>
    </person>
    <person id="93" type="pedestrian" depart="23.25">
        <walk edges="gneE150 gneE142.97 gneE142.111 gneE34 gneE7 gneE154 gneE12 -gneE102 gneE102 -gneE104 -292630184#1 -292630184#2 292630184#2 gneE175.63 gneE175 gneE160 -4520029#5 -4520029#6 4520029#6 4520029#5 423191019#0"/>
    </person>
    <person id="94" type="pedestrian" depart="23.50">
        <walk edges="gneE140 gneE132.183 38759699#0 gneE7 gneE154 gneE12 -gneE102 gneE102 -gneE104 -292630184#1 -292630184#2 292630184#2 gneE175.63 gneE175 gneE160 -4520029#5 -4520029#6 4520029#6"/>
    </person>
    <person id="95" type="pedestrian" depart="23.75">
        <walk edges="303588543#3 gneE110 303809479 -24998362#1 gneE180 gneE175.63 292630184#2 -292630184#2 -292630184#1 -gneE104 gneE102 -gneE102 gneE12 gneE154 gneE7 38759699#0 gneE132.183 gneE132.166 gneE132 gneE55.82 gneE55.22 gneE55"/>
    </person>
    <person id="96" type="pedestrian" depart="24.00">
        <walk edges="gneE4 gneE11 gneE154 gneE7 38759699#0 gneE132.183 gneE140 gneE134 gneE97 161652311#5 gneE87 gneE88 346311427#0 346311427#0.6 346311427#1 346311427#2 346311427#3"/>
    </person>
    <person id="97" type="pedestrian" depart="24.25">
        <walk edges="gneE132 gneE132.166 gneE132.183 38759699#0 gneE7 gneE154 gneE12 -gneE102 gneE102 -gneE104 -292630184#1 -292630184#2 292630184#2 gneE175.63"/>
    </person>
    <person id="98" type="pedestrian" depart="24.50">
        <walk edges="450396602#1 gneE55.82 gneE132 gneE132.166 gneE132.183 38759699#0 gneE7 gneE154 gneE12 -gneE102 gneE102 -gneE104 -292630184#1 -292630184#2 292630184#2 gneE175.63 gneE176.9 24998184 -24998184 gneE159"/>
    </person>
    <person id="99" type="pedestrian" depart="24.75">
        <walk edges="gneE55 gneE55.22 gneE55.82 -gneE56 -97594013#3 153191825#2 153191825#1 450402225#1 450402225#2 153191826#1 161652311#5 gneE87 gneE171.67 gneE173"/>
    </person>
    <person id="100" type="pedestrian" depart="25.00">
        <walk edges="423191019#0 4520029#5 4520029#6 -4520029#6 -4520029#5 gneE160 gneE175 gneE175.63 292630184#2 -292630184#2 -292630184#1 -gneE104 gneE102 -gneE102 gneE12 gneE154 gneE7 38759699#0 gneE132.183 gneE132.166 gneE132 gneE55.82 gneE55.22"/>
    </person>
    <person id="101" type="pedestrian" depart="25.25">
        <walk edges="gneE55 gneE55.22 gneE55.82 gneE132 gneE132.166 gneE141 gneE37 gneE32 -gneE19"/>
    </person>
    <person id="102" type="pedestrian" depart="25.50">
        <walk edges="gneE142 gneE142.72 gneE142.97 gneE142.111 gneE34 38759699#0 gneE132.183 gneE132.166 gneE132 gneE55.82 gneE55.22 gneE55"/>
    </person>
    <person id="103" type="pedestrian" depart="25.75">
        <walk edges="gneE37 gneE141 gneE140 gneE134 gneE97 161652311#5 gneE87 gneE88 346311427#0 346311427#0.6 346311427#1 346311427#2 346311427#3 346311427#4"/>
    </person>
    <person id="104" type="pedestrian" depart="26.00">
        <walk edges="gneE149 gneE142.72 gneE142.97 gneE142.111 gneE34 gneE7 gneE154 gneE12 -gneE102 gneE102 -gneE104 -292630184#1 -292630184#2 292630184#2 gneE175.63 gneE176"/>
    </person>
    <person id="105" type="pedestrian" depart="26.25">
        <walk edges="97594014#3 -gneE96 153191823#0 153191823#1 gneE134 gneE140 gneE132.183 38759699#0 gneE7 gneE7.32 gneE155"/>
    </person>
    <person id="106" type="pedestrian" depart="26.50">
        <walk edges="-gneE19 gneE19 -gneE32 313576542#2 gneE34 gneE7 gneE154 gneE12 -gneE102 gneE102 -gneE104 -292630184#1 -292630184#2 292630184#2 gneE175.63 gneE176.9 24998184 -24998362#3 gneE129"/>
    </person>
    <person id="107" type="pedestrian" depart="26.75">
        <walk edges="-292630184#2 -292630184#1 -gneE104 gneE102 -gneE102 gneE12 gneE154 gneE7 38759699#0 gneE132.183 gneE140 gneE134 153191823#1 153191823#0 153191825#2 153191825#1 450402225#1"/>
    </person>
    <person id="108" type="pedestrian" depart="27.00">
        <walk edges="-gneE101 gneE134 gneE140 gneE132.183 38759699#0 gneE7 gneE154 gneE12 -gneE102 gneE102 -gneE104 -292630184#1 -292630184#2 292630184#2 gneE175.63 gneE175 gneE160 -4520029#5 -4520029#6"/>
    </person>
    <person id="109" type="pedestrian" depart="27.25">
        <walk edges="-4520029#6 -4520029#5 gneE160 gneE175 gneE175.63 292630184#2 -292630184#2 -292630184#1 -gneE104 gneE102 -gneE102 gneE12 gneE154 gneE7 gneE34 313576542#2 gneE32 -gneE22.65 -gneE22.26 -gneE22 gneE30 gneE44"/>
    </person>
    <person id="110" type="pedestrian" depart="27.50">
        <walk edges="gneE7 gneE154 gneE12 -gneE102 gneE102 -gneE104 -292630184#1 -292630184#2 292630184#2 gneE175.63 gneE175 gneE160 -4520029#5"/>
    </person>
    <person id="111" type="pedestrian" depart="27.75">
        <walk edges="423205028#0 gneE157 gneE22 -gneE32 313576542#2 gneE34 gneE7 gneE154 gneE12 -gneE102 gneE102 -gneE104 -292630184#1 -292630184#2 292630184#2 gneE175.63 gneE176.9 24998184 -24998362#3 gneE127 gneE107 gneE109"/>
    </person>
    <person id="112" type="pedestrian" depart="28.00">
        <walk edges="gneE55.22 gneE55.82 gneE132 gneE132.166 gneE132.183 38759699#0 gneE7 gneE7.32 gneE155"/>
    </person>
    <person id="113" type="pedestrian" depart="28.25">
        <walk edges="-gneE25 gneE25 gneE22.91 gneE22.53 gneE22 -gneE32 313576542#2 gneE34 gneE7 gneE154 gneE12 -gneE102"/>
    </person>
    <person id="114" type="pedestrian" depart="28.50">
        <walk edges="gneE7.32 gneE154 gneE12 -gneE102 gneE102 -gneE104 -292630184#1 -292630184#2 292630184#2 gneE175.63 gneE175 gneE160 -4520029#5 -4520029#6"/>
    </person>
    <person id="115" type="pedestrian" depart="28.75">
        <walk edges="4520029#6 -4520029#6 -4520029#5 gneE160 gneE175 gneE175.63 292630184#2 -292630184#2 -292630184#1 -gneE104 gneE102 -gneE102 gneE12 gneE154 gneE7 gneE34 313576542#2 -gneE32 gneE22"/>
    </person>
    <person id="116" type="pedestrian" depart="29.00">
        <walk edges="-292630184#2 -292630184#1 -gneE104 gneE102 -gneE102 gneE12 gneE154 gneE7 38759699#0 gneE132.183 gneE140 gneE134 153191823#1 450402225#3 450402225#2 gneE170 153191827 450402223 450402225#0"/>
    </person>
    <person id="117" type="pedestrian" depart="29.25">
        <walk edges="gneE155 gneE7.32 gneE7 38759699#0 gneE132.183 gneE132.166 gneE132 gneE55.82 gneE55.22 gneE167"/>
    </person>
    <person id="118" type="pedestrian" depart="29.50">